<?xml version="1.0" encoding="UTF-8"?>

<!-- generated on czw, 20 sie 2020, 13:59:45 by Eclipse SUMO netedit Version 1.5.0
<configuration xmlns:xsi="http://www.w3.org/2001/XMLSchema-instance" xsi:noNamespaceSchemaLocation="http://sumo.dlr.de/xsd/netconvertConfiguration.xsd">

    <input>
        <sumo-net-file value="/home/damiano/workspace/intersection-manager/configs/multiline/multiline.net.xml"/>
    </input>

    <output>
        <output-file value="/home/damiano/workspace/intersection-manager/configs/multiline/multiline.net.xml"/>
    </output>

    <processing>
        <geometry.min-radius.fix.railways value="false"/>
        <geometry.max-grade.fix value="false"/>
        <offset.disable-normalization value="true"/>
        <lefthand value="false"/>
    </processing>

    <junctions>
        <no-turnarounds value="true"/>
        <junctions.corner-detail value="5"/>
        <junctions.limit-turn-speed value="5.5"/>
        <rectangular-lane-cut value="false"/>
    </junctions>

    <pedestrian>
        <walkingareas value="false"/>
    </pedestrian>

    <report>
        <aggregate-warnings value="5"/>
    </report>

</configuration>
-->

<net version="1.3" junctionCornerDetail="5" limitTurnSpeed="5.50" xmlns:xsi="http://www.w3.org/2001/XMLSchema-instance" xsi:noNamespaceSchemaLocation="http://sumo.dlr.de/xsd/net_file.xsd">

    <location netOffset="0.00,0.00" convBoundary="-100.00,-100.00,100.00,100.00" origBoundary="-10000000000.00,-10000000000.00,10000000000.00,10000000000.00" projParameter="!"/>

    <edge id=":gneJ1_0" function="internal">
        <lane id=":gneJ1_0_0" index="0" speed="13.89" length="27.20" shape="-11.20,10.40 -11.20,-16.80"/>
        <lane id=":gneJ1_0_1" index="1" speed="13.89" length="27.20" shape="-8.00,10.40 -8.00,-16.80"/>
        <lane id=":gneJ1_0_2" index="2" speed="13.89" length="27.20" shape="-4.80,10.40 -4.80,-16.80"/>
        <lane id=":gneJ1_0_3" index="3" speed="13.89" length="27.20" shape="-1.60,10.40 -1.60,-16.80"/>
    </edge>
    <edge id=":gneJ1_4" function="internal">
        <lane id=":gneJ1_4_0" index="0" speed="8.83" length="9.73" shape="-1.60,10.40 -1.25,3.75 -0.59,0.75"/>
    </edge>
    <edge id=":gneJ1_5" function="internal">
        <lane id=":gneJ1_5_0" index="0" speed="8.10" length="10.19" shape="-1.60,10.40 -1.25,5.15 -0.20,1.40 0.43,0.59"/>
    </edge>
    <edge id=":gneJ1_13" function="internal">
        <lane id=":gneJ1_13_0" index="0" speed="8.83" length="7.76" shape="-0.59,0.75 -0.20,-1.00 1.55,-3.85 4.00,-4.80"/>
    </edge>
    <edge id=":gneJ1_14" function="internal">
        <lane id=":gneJ1_14_0" index="0" speed="8.10" length="4.38" shape="0.43,0.59 1.55,-0.85 4.00,-1.60"/>
    </edge>
    <edge id=":gneJ1_6" function="internal">
        <lane id=":gneJ1_6_0" index="0" speed="8.10" length="14.57" shape="-16.80,-4.80 -14.35,-5.55 -12.60,-7.80 -11.55,-11.55 -11.20,-16.80"/>
    </edge>
    <edge id=":gneJ1_7" function="internal">
        <lane id=":gneJ1_7_0" index="0" speed="8.67" length="16.85" shape="-16.80,-4.80 -12.95,-5.55 -10.20,-7.80 -8.55,-11.55 -8.00,-16.80"/>
    </edge>
    <edge id=":gneJ1_8" function="internal">
        <lane id=":gneJ1_8_0" index="0" speed="9.26" length="19.35" shape="-16.80,-4.80 -11.55,-5.55 -7.80,-7.80 -5.55,-11.55 -4.80,-16.80"/>
    </edge>
    <edge id=":gneJ1_9" function="internal">
        <lane id=":gneJ1_9_0" index="0" speed="13.89" length="22.07" shape="-16.80,-4.80 -10.49,-5.80 -6.40,-8.00 -2.31,-10.20 4.00,-11.20"/>
        <lane id=":gneJ1_9_1" index="1" speed="13.89" length="22.07" shape="-16.80,-1.60 -10.49,-2.60 -6.40,-4.80 -2.31,-7.00 4.00,-8.00"/>
        <lane id=":gneJ1_9_2" index="2" speed="13.89" length="22.07" shape="-16.80,1.60 -10.49,0.60 -6.40,-1.60 -2.31,-3.80 4.00,-4.80"/>
        <lane id=":gneJ1_9_3" index="3" speed="13.89" length="22.07" shape="-16.80,4.80 -10.49,3.80 -6.40,1.60 -2.31,-0.60 4.00,-1.60"/>
    </edge>

    <edge id="gneE0" from="gneJ0" to="gneJ1" priority="-1" spreadType="center">
        <lane id="gneE0_0" index="0" speed="13.89" length="83.20" shape="-100.00,-4.80 -16.80,-4.80"/>
        <lane id="gneE0_1" index="1" speed="13.89" length="83.20" shape="-100.00,-1.60 -16.80,-1.60"/>
        <lane id="gneE0_2" index="2" speed="13.89" length="83.20" shape="-100.00,1.60 -16.80,1.60"/>
        <lane id="gneE0_3" index="3" speed="13.89" length="83.20" shape="-100.00,4.80 -16.80,4.80"/>
    </edge>
    <edge id="gneE4" from="gneJ5" to="gneJ1" priority="-1">
        <lane id="gneE4_0" index="0" speed="13.89" length="89.60" shape="-11.20,100.00 -11.20,10.40"/>
        <lane id="gneE4_1" index="1" speed="13.89" length="89.60" shape="-8.00,100.00 -8.00,10.40"/>
        <lane id="gneE4_2" index="2" speed="13.89" length="89.60" shape="-4.80,100.00 -4.80,10.40"/>
        <lane id="gneE4_3" index="3" speed="13.89" length="89.60" shape="-1.60,100.00 -1.60,10.40"/>
    </edge>
    <edge id="gneE5" from="gneJ1" to="gneJ6" priority="-1">
        <lane id="gneE5_0" index="0" speed="13.89" length="83.20" shape="-11.20,-16.80 -11.20,-100.00"/>
        <lane id="gneE5_1" index="1" speed="13.89" length="83.20" shape="-8.00,-16.80 -8.00,-100.00"/>
        <lane id="gneE5_2" index="2" speed="13.89" length="83.20" shape="-4.80,-16.80 -4.80,-100.00"/>
        <lane id="gneE5_3" index="3" speed="13.89" length="83.20" shape="-1.60,-16.80 -1.60,-100.00"/>
    </edge>
    <edge id="gneE6" from="gneJ1" to="gneJ8" priority="-1">
        <lane id="gneE6_0" index="0" speed="13.89" length="96.00" shape="4.00,-11.20 100.00,-11.20"/>
        <lane id="gneE6_1" index="1" speed="13.89" length="96.00" shape="4.00,-8.00 100.00,-8.00"/>
        <lane id="gneE6_2" index="2" speed="13.89" length="96.00" shape="4.00,-4.80 100.00,-4.80"/>
        <lane id="gneE6_3" index="3" speed="13.89" length="96.00" shape="4.00,-1.60 100.00,-1.60"/>
    </edge>

    <junction id="gneJ0" type="dead_end" x="-100.00" y="0.00" incLanes="" intLanes="" shape="-100.00,6.40 -100.00,-6.40"/>
    <junction id="gneJ1" type="priority" x="0.00" y="0.00" incLanes="gneE4_0 gneE4_1 gneE4_2 gneE4_3 gneE0_0 gneE0_1 gneE0_2 gneE0_3" intLanes=":gneJ1_0_0 :gneJ1_0_1 :gneJ1_0_2 :gneJ1_0_3 :gneJ1_13_0 :gneJ1_14_0 :gneJ1_6_0 :gneJ1_7_0 :gneJ1_8_0 :gneJ1_9_0 :gneJ1_9_1 :gneJ1_9_2 :gneJ1_9_3" shape="-12.80,10.40 0.00,10.40 0.11,7.22 0.44,4.62 1.00,2.60 1.78,1.16 2.78,0.29 4.00,0.00 4.00,-12.80 1.78,-13.24 1.00,-13.80 0.44,-14.58 0.11,-15.58 0.00,-16.80 -12.80,-16.80 -12.91,-13.62 -13.24,-11.02 -13.80,-9.00 -14.58,-7.56 -15.58,-6.69 -16.80,-6.40 -16.80,6.40 -14.58,6.84 -13.80,7.40 -13.24,8.18 -12.91,9.18">
        <request index="0"  response="1111111000000" foes="1111111000000" cont="0"/>
        <request index="1"  response="1111111000000" foes="1111111000000" cont="0"/>
        <request index="2"  response="1111111000000" foes="1111111000000" cont="0"/>
        <request index="3"  response="1111111000000" foes="1111111000000" cont="0"/>
        <request index="4"  response="1111000000000" foes="1111000000000" cont="1"/>
        <request index="5"  response="1111000000000" foes="1111000000000" cont="1"/>
        <request index="6"  response="0000000000000" foes="0000000001111" cont="0"/>
        <request index="7"  response="0000000000000" foes="0000000001111" cont="0"/>
        <request index="8"  response="0000000000000" foes="0000000001111" cont="0"/>
        <request index="9"  response="0000000000000" foes="0000000111111" cont="0"/>
        <request index="10" response="0000000000000" foes="0000000111111" cont="0"/>
        <request index="11" response="0000000000000" foes="0000000111111" cont="0"/>
        <request index="12" response="0000000000000" foes="0000000111111" cont="0"/>
    </junction>
    <junction id="gneJ5" type="dead_end" x="0.00" y="100.00" incLanes="" intLanes="" shape="0.00,100.00 -12.80,100.00"/>
    <junction id="gneJ6" type="dead_end" x="0.00" y="-100.00" incLanes="gneE5_0 gneE5_1 gneE5_2 gneE5_3" intLanes="" shape="-12.80,-100.00 0.00,-100.00"/>
    <junction id="gneJ8" type="dead_end" x="100.00" y="0.00" incLanes="gneE6_0 gneE6_1 gneE6_2 gneE6_3" intLanes="" shape="100.00,-12.80 100.00,0.00"/>

    <junction id=":gneJ1_13_0" type="internal" x="-0.59" y="0.75" incLanes=":gneJ1_4_0 gneE0_0 gneE0_1 gneE0_2 gneE0_3" intLanes=":gneJ1_9_0 :gneJ1_9_1 :gneJ1_9_2 :gneJ1_9_3"/>
    <junction id=":gneJ1_14_0" type="internal" x="0.43" y="0.59" incLanes=":gneJ1_5_0 gneE0_0 gneE0_1 gneE0_2 gneE0_3" intLanes=":gneJ1_9_0 :gneJ1_9_1 :gneJ1_9_2 :gneJ1_9_3"/>

    <connection from="gneE0" to="gneE5" fromLane="0" toLane="0" via=":gneJ1_6_0" dir="r" state="M"/>
    <connection from="gneE0" to="gneE5" fromLane="0" toLane="1" via=":gneJ1_7_0" dir="r" state="M"/>
    <connection from="gneE0" to="gneE5" fromLane="0" toLane="2" via=":gneJ1_8_0" dir="r" state="M"/>
    <connection from="gneE0" to="gneE6" fromLane="0" toLane="0" via=":gneJ1_9_0" dir="s" state="M"/>
    <connection from="gneE0" to="gneE6" fromLane="1" toLane="1" via=":gneJ1_9_1" dir="s" state="M"/>
    <connection from="gneE0" to="gneE6" fromLane="2" toLane="2" via=":gneJ1_9_2" dir="s" state="M"/>
    <connection from="gneE0" to="gneE6" fromLane="3" toLane="3" via=":gneJ1_9_3" dir="s" state="M"/>
    <connection from="gneE4" to="gneE5" fromLane="0" toLane="0" via=":gneJ1_0_0" dir="s" state="m"/>
    <connection from="gneE4" to="gneE5" fromLane="1" toLane="1" via=":gneJ1_0_1" dir="s" state="m"/>
    <connection from="gneE4" to="gneE5" fromLane="2" toLane="2" via=":gneJ1_0_2" dir="s" state="m"/>
    <connection from="gneE4" to="gneE5" fromLane="3" toLane="3" via=":gneJ1_0_3" dir="s" state="m"/>
    <connection from="gneE4" to="gneE6" fromLane="3" toLane="2" via=":gneJ1_4_0" dir="l" state="m"/>
    <connection from="gneE4" to="gneE6" fromLane="3" toLane="3" via=":gneJ1_5_0" dir="l" state="m"/>

    <connection from=":gneJ1_0" to="gneE5" fromLane="0" toLane="0" dir="s" state="M"/>
    <connection from=":gneJ1_0" to="gneE5" fromLane="1" toLane="1" dir="s" state="M"/>
    <connection from=":gneJ1_0" to="gneE5" fromLane="2" toLane="2" dir="s" state="M"/>
    <connection from=":gneJ1_0" to="gneE5" fromLane="3" toLane="3" dir="s" state="M"/>
    <connection from=":gneJ1_4" to="gneE6" fromLane="0" toLane="2" via=":gneJ1_13_0" dir="l" state="m"/>
    <connection from=":gneJ1_13" to="gneE6" fromLane="0" toLane="2" dir="l" state="M"/>
    <connection from=":gneJ1_5" to="gneE6" fromLane="0" toLane="3" via=":gneJ1_14_0" dir="l" state="m"/>
    <connection from=":gneJ1_14" to="gneE6" fromLane="0" toLane="3" dir="l" state="M"/>
    <connection from=":gneJ1_6" to="gneE5" fromLane="0" toLane="0" dir="r" state="M"/>
    <connection from=":gneJ1_7" to="gneE5" fromLane="0" toLane="1" dir="r" state="M"/>
    <connection from=":gneJ1_8" to="gneE5" fromLane="0" toLane="2" dir="r" state="M"/>
    <connection from=":gneJ1_9" to="gneE6" fromLane="0" toLane="0" dir="s" state="M"/>
    <connection from=":gneJ1_9" to="gneE6" fromLane="1" toLane="1" dir="s" state="M"/>
    <connection from=":gneJ1_9" to="gneE6" fromLane="2" toLane="2" dir="s" state="M"/>
    <connection from=":gneJ1_9" to="gneE6" fromLane="3" toLane="3" dir="s" state="M"/>

</net>
