<?xml version="1.0" encoding="UTF-8"?>

<!-- generated on śro, 22 lip 2020, 12:04:26 by Eclipse SUMO netedit Version 1.5.0
<configuration xmlns:xsi="http://www.w3.org/2001/XMLSchema-instance" xsi:noNamespaceSchemaLocation="http://sumo.dlr.de/xsd/netconvertConfiguration.xsd">

    <input>
        <sumo-net-file value="/home/damiano/workspace/intersection-manager/configs/straight/straight.net.xml"/>
    </input>

    <output>
        <output-file value="/home/damiano/workspace/intersection-manager/configs/straight/straight.net.xml"/>
    </output>

    <processing>
        <geometry.min-radius.fix.railways value="false"/>
        <geometry.max-grade.fix value="false"/>
        <offset.disable-normalization value="true"/>
        <lefthand value="false"/>
    </processing>

    <junctions>
        <no-turnarounds value="true"/>
        <junctions.corner-detail value="5"/>
        <junctions.limit-turn-speed value="5.5"/>
        <rectangular-lane-cut value="false"/>
    </junctions>

    <pedestrian>
        <walkingareas value="false"/>
    </pedestrian>

    <report>
        <aggregate-warnings value="5"/>
    </report>

</configuration>
-->

<net version="1.3" junctionCornerDetail="5" limitTurnSpeed="5.50" xmlns:xsi="http://www.w3.org/2001/XMLSchema-instance" xsi:noNamespaceSchemaLocation="http://sumo.dlr.de/xsd/net_file.xsd">

    <location netOffset="0.00,0.00" convBoundary="-123.11,16.00,155.88,18.77" origBoundary="-10000000000.00,-10000000000.00,10000000000.00,10000000000.00" projParameter="!"/>

    <edge id="gneE7" from="gneJ9" to="gneJ10" priority="-1">
        <lane id="gneE7_0" index="0" speed="13.89" length="279.01" shape="-123.13,17.17 155.87,14.40"/>
    </edge>

    <junction id="gneJ10" type="dead_end" x="100" y="0" incLanes="gneE7_0" intLanes="" shape="155.85,12.80 155.88,16.00"/>
    <junction id="gneJ9" type="dead_end" x="-100" y="0" incLanes="" intLanes="" shape="-123.11,18.77 -123.14,15.57"/>

</net>
