<?xml version="1.0" encoding="UTF-8"?>

<!-- generated on nie, 24 maj 2020, 18:11:59 by Eclipse SUMO netedit Version 1.5.0
<configuration xmlns:xsi="http://www.w3.org/2001/XMLSchema-instance" xsi:noNamespaceSchemaLocation="http://sumo.dlr.de/xsd/netconvertConfiguration.xsd">

    <input>
        <sumo-net-file value="/home/damiano/workspace/smart-intersections/new/new.net.xml"/>
    </input>

    <output>
        <output-file value="/home/damiano/workspace/intersection-manager/new/new2.net.xml"/>
    </output>

    <processing>
        <geometry.min-radius.fix.railways value="false"/>
        <geometry.max-grade.fix value="false"/>
        <offset.disable-normalization value="true"/>
        <lefthand value="false"/>
    </processing>

    <junctions>
        <no-turnarounds value="true"/>
        <junctions.corner-detail value="5"/>
        <junctions.limit-turn-speed value="5.5"/>
        <rectangular-lane-cut value="false"/>
    </junctions>

    <pedestrian>
        <walkingareas value="false"/>
    </pedestrian>

    <report>
        <aggregate-warnings value="5"/>
    </report>

</configuration>
-->

<net version="1.3" junctionCornerDetail="5" limitTurnSpeed="5.50" xmlns:xsi="http://www.w3.org/2001/XMLSchema-instance" xsi:noNamespaceSchemaLocation="http://sumo.dlr.de/xsd/net_file.xsd">

    <location netOffset="0.00,0.00" convBoundary="-100.00,-100.00,100.00,100.00" origBoundary="-10000000000.00,-10000000000.00,10000000000.00,10000000000.00" projParameter="!"/>

    <edge id=":gneJ1_0" function="internal">
        <lane id=":gneJ1_0_0" index="0" speed="13.89" length="11.20" shape="-1.60,4.00 -1.60,-7.20"/>
    </edge>
    <edge id=":gneJ1_1" function="internal">
        <lane id=":gneJ1_1_0" index="0" speed="6.51" length="4.28" shape="-1.60,4.00 -1.25,1.55 -0.32,-0.00"/>
    </edge>
    <edge id=":gneJ1_4" function="internal">
        <lane id=":gneJ1_4_0" index="0" speed="6.51" length="4.75" shape="-0.32,-0.00 -0.20,-0.20 1.55,-1.25 4.00,-1.60"/>
    </edge>
    <edge id=":gneJ1_2" function="internal">
        <lane id=":gneJ1_2_0" index="0" speed="6.51" length="9.03" shape="-7.20,-1.60 -4.75,-1.95 -3.00,-3.00 -1.95,-4.75 -1.60,-7.20"/>
    </edge>
    <edge id=":gneJ1_3" function="internal">
        <lane id=":gneJ1_3_0" index="0" speed="13.89" length="11.20" shape="-7.20,-1.60 4.00,-1.60"/>
    </edge>

    <edge id="gneE0" from="gneJ0" to="gneJ1" priority="-1">
        <lane id="gneE0_0" index="0" speed="13.89" length="92.80" shape="-100.00,-1.60 -7.20,-1.60"/>
    </edge>
    <edge id="gneE4" from="gneJ5" to="gneJ1" priority="-1">
        <lane id="gneE4_0" index="0" speed="13.89" length="96.00" shape="-1.60,100.00 -1.60,4.00"/>
    </edge>
    <edge id="gneE5" from="gneJ1" to="gneJ6" priority="-1">
        <lane id="gneE5_0" index="0" speed="13.89" length="92.80" shape="-1.60,-7.20 -1.60,-100.00"/>
    </edge>
    <edge id="gneE6" from="gneJ1" to="gneJ8" priority="-1">
        <lane id="gneE6_0" index="0" speed="13.89" length="96.00" shape="4.00,-1.60 100.00,-1.60"/>
    </edge>

    <junction id="gneJ0" type="dead_end" x="-100.00" y="0.00" incLanes="" intLanes="" shape="-100.00,0.00 -100.00,-3.20"/>
    <junction id="gneJ1" type="priority" x="0.00" y="0.00" incLanes="gneE4_0 gneE0_0" intLanes=":gneJ1_0_0 :gneJ1_4_0 :gneJ1_2_0 :gneJ1_3_0" shape="-3.20,4.00 0.00,4.00 0.44,1.78 1.00,1.00 1.78,0.44 2.78,0.11 4.00,0.00 4.00,-3.20 1.78,-3.64 1.00,-4.20 0.44,-4.98 0.11,-5.98 0.00,-7.20 -3.20,-7.20 -3.64,-4.98 -4.20,-4.20 -4.98,-3.64 -5.98,-3.31 -7.20,-3.20 -7.20,0.00 -4.98,0.44 -4.20,1.00 -3.64,1.78 -3.31,2.78">
        <request index="0" response="1100" foes="1100" cont="0"/>
        <request index="1" response="1000" foes="1000" cont="1"/>
        <request index="2" response="0000" foes="0001" cont="0"/>
        <request index="3" response="0000" foes="0011" cont="0"/>
    </junction>
    <junction id="gneJ5" type="dead_end" x="0.00" y="100.00" incLanes="" intLanes="" shape="0.00,100.00 -3.20,100.00"/>
    <junction id="gneJ6" type="dead_end" x="0.00" y="-100.00" incLanes="gneE5_0" intLanes="" shape="-3.20,-100.00 0.00,-100.00"/>
    <junction id="gneJ8" type="dead_end" x="100.00" y="0.00" incLanes="gneE6_0" intLanes="" shape="100.00,-3.20 100.00,0.00"/>

    <junction id=":gneJ1_4_0" type="internal" x="-0.32" y="-0.00" incLanes=":gneJ1_1_0 gneE0_0" intLanes=":gneJ1_3_0"/>

    <connection from="gneE0" to="gneE5" fromLane="0" toLane="0" via=":gneJ1_2_0" dir="r" state="M"/>
    <connection from="gneE0" to="gneE6" fromLane="0" toLane="0" via=":gneJ1_3_0" dir="s" state="M"/>
    <connection from="gneE4" to="gneE5" fromLane="0" toLane="0" via=":gneJ1_0_0" dir="s" state="m"/>
    <connection from="gneE4" to="gneE6" fromLane="0" toLane="0" via=":gneJ1_1_0" dir="l" state="m"/>

    <connection from=":gneJ1_0" to="gneE5" fromLane="0" toLane="0" dir="s" state="M"/>
    <connection from=":gneJ1_1" to="gneE6" fromLane="0" toLane="0" via=":gneJ1_4_0" dir="l" state="m"/>
    <connection from=":gneJ1_4" to="gneE6" fromLane="0" toLane="0" dir="l" state="M"/>
    <connection from=":gneJ1_2" to="gneE5" fromLane="0" toLane="0" dir="r" state="M"/>
    <connection from=":gneJ1_3" to="gneE6" fromLane="0" toLane="0" dir="s" state="M"/>

</net>
